<?xml version="1.0" encoding="UTF-8"?>

<net version="0.13" xmlns:xsi="http://www.w3.org/2001/XMLSchema-instance" xsi:noNamespaceSchemaLocation="http://sumo.dlr.de/xsd/net_file.xsd">

    <location netOffset="-457489.60,-5401158.65" convBoundary="0.00,0.00,67655.62,59752.40" origBoundary="8.419209,48.763432,9.345188,49.300339" projParameter="+proj=utm +zone=32 +ellps=WGS84 +datum=WGS84 +units=m +no_defs"/>

    <type id="highway.bridleway" priority="1" numLanes="1" speed="2.78" allow="pedestrian" oneway="1" width="2.00"/>
    <type id="highway.bus_guideway" priority="1" numLanes="1" speed="8.33" allow="bus" oneway="1"/>
    <type id="highway.cycleway" priority="1" numLanes="1" speed="5.56" allow="bicycle" oneway="0" width="1.00"/>
    <type id="highway.footway" priority="1" numLanes="1" speed="8.33" allow="pedestrian" oneway="1" width="2.00"/>
    <type id="highway.ford" priority="1" numLanes="1" speed="2.78" allow="army" oneway="0"/>
    <type id="highway.living_street" priority="3" numLanes="1" speed="2.78" disallow="tram rail_urban rail rail_electric ship" oneway="0"/>
    <type id="highway.motorway" priority="13" numLanes="2" speed="44.44" allow="private emergency authority army vip passenger hov taxi bus coach delivery truck trailer motorcycle evehicle custom1 custom2" oneway="1"/>
    <type id="highway.motorway_link" priority="12" numLanes="1" speed="22.22" allow="private emergency authority army vip passenger hov taxi bus coach delivery truck trailer motorcycle evehicle custom1 custom2" oneway="1"/>
    <type id="highway.path" priority="1" numLanes="1" speed="2.78" allow="bicycle pedestrian" oneway="1" width="2.00"/>
    <type id="highway.pedestrian" priority="1" numLanes="1" speed="8.33" allow="pedestrian" oneway="1" width="2.00"/>
    <type id="highway.primary" priority="9" numLanes="2" speed="27.78" disallow="tram rail_urban rail rail_electric ship" oneway="0"/>
    <type id="highway.primary_link" priority="8" numLanes="1" speed="22.22" disallow="tram rail_urban rail rail_electric ship" oneway="0"/>
    <type id="highway.raceway" priority="14" numLanes="2" speed="83.33" allow="vip" oneway="0"/>
    <type id="highway.residential" priority="4" numLanes="1" speed="13.89" disallow="tram rail_urban rail rail_electric ship" oneway="0"/>
    <type id="highway.secondary" priority="7" numLanes="2" speed="27.78" disallow="tram rail_urban rail rail_electric ship" oneway="0"/>
    <type id="highway.secondary_link" priority="6" numLanes="1" speed="22.22" disallow="tram rail_urban rail rail_electric ship" oneway="0"/>
    <type id="highway.service" priority="2" numLanes="1" speed="5.56" allow="delivery bicycle pedestrian" oneway="0"/>
    <type id="highway.services" priority="1" numLanes="1" speed="8.33" disallow="tram rail_urban rail rail_electric ship" oneway="0"/>
    <type id="highway.stairs" priority="1" numLanes="1" speed="1.39" allow="pedestrian" oneway="1" width="2.00"/>
    <type id="highway.step" priority="1" numLanes="1" speed="1.39" allow="pedestrian" oneway="1" width="2.00"/>
    <type id="highway.steps" priority="1" numLanes="1" speed="1.39" allow="pedestrian" oneway="1" width="2.00"/>
    <type id="highway.tertiary" priority="6" numLanes="1" speed="22.22" disallow="tram rail_urban rail rail_electric ship" oneway="0"/>
    <type id="highway.tertiary_link" priority="5" numLanes="1" speed="22.22" disallow="tram rail_urban rail rail_electric ship" oneway="0"/>
    <type id="highway.track" priority="1" numLanes="1" speed="5.56" disallow="tram rail_urban rail rail_electric ship" oneway="0"/>
    <type id="highway.trunk" priority="11" numLanes="2" speed="27.78" disallow="tram rail_urban rail rail_electric bicycle pedestrian ship" oneway="0"/>
    <type id="highway.trunk_link" priority="10" numLanes="1" speed="22.22" disallow="tram rail_urban rail rail_electric bicycle pedestrian ship" oneway="0"/>
    <type id="highway.unclassified" priority="5" numLanes="1" speed="13.89" disallow="tram rail_urban rail rail_electric ship" oneway="0"/>
    <type id="highway.unsurfaced" priority="1" numLanes="1" speed="8.33" disallow="tram rail_urban rail rail_electric ship" oneway="0"/>
    <type id="railway.light_rail" priority="15" numLanes="1" speed="27.78" allow="rail_urban" oneway="1"/>
    <type id="railway.preserved" priority="15" numLanes="1" speed="27.78" allow="rail" oneway="1"/>
    <type id="railway.rail" priority="15" numLanes="1" speed="83.33" allow="rail rail_electric" oneway="1"/>
    <type id="railway.subway" priority="15" numLanes="1" speed="27.78" allow="rail_urban" oneway="1"/>
    <type id="railway.tram" priority="15" numLanes="1" speed="13.89" allow="tram" oneway="1"/>

    <edge id=":-24_0" function="internal">
        <lane id=":-24_0_0" index="0" allow="private emergency authority army vip passenger hov taxi bus coach delivery truck trailer motorcycle evehicle custom1 custom2" speed="52.78" length="7.42" shape="16738.49,16255.10 16731.07,16254.98"/>
    </edge>
    <edge id=":-24_1" function="internal">
        <lane id=":-24_1_0" index="0" allow="private emergency authority army vip passenger hov taxi bus coach delivery truck trailer motorcycle evehicle custom1 custom2" speed="83.33" length="7.99" shape="16738.47,16251.78 16730.46,16251.74"/>
        <lane id=":-24_1_1" index="1" allow="private emergency authority army vip passenger hov taxi bus coach delivery truck trailer motorcycle evehicle custom1 custom2" speed="83.33" length="7.99" shape="16737.84,16248.54 16729.85,16248.49"/>
        <lane id=":-24_1_2" index="2" allow="private emergency authority army vip passenger hov taxi bus coach delivery truck trailer motorcycle evehicle custom1 custom2" speed="83.33" length="7.99" shape="16737.21,16245.30 16729.25,16245.25"/>
    </edge>
    <edge id=":-30_0" function="internal">
        <lane id=":-30_0_0" index="0" allow="private emergency authority army vip passenger hov taxi bus coach delivery truck trailer motorcycle evehicle custom1 custom2" speed="83.33" length="5.05" shape="47610.36,49916.11 47613.05,49911.84"/>
    </edge>
    <edge id=":-30_1" function="internal">
        <lane id=":-30_1_0" index="0" allow="private emergency authority army vip passenger hov taxi bus coach delivery truck trailer motorcycle evehicle custom1 custom2" speed="83.33" length="5.49" shape="47611.92,49919.02 47615.17,49914.68"/>
        <lane id=":-30_1_1" index="1" allow="private emergency authority army vip passenger hov taxi bus coach delivery truck trailer motorcycle evehicle custom1 custom2" speed="83.33" length="5.49" shape="47613.48,49921.93 47616.79,49917.56"/>
        <lane id=":-30_1_2" index="2" allow="private emergency authority army vip passenger hov taxi bus coach delivery truck trailer motorcycle evehicle custom1 custom2" speed="83.33" length="5.49" shape="47615.03,49924.84 47618.42,49920.43"/>
    </edge>
    <edge id=":-32_0" function="internal">
        <lane id=":-32_0_0" index="0" allow="private emergency authority army vip passenger hov taxi bus coach delivery truck trailer motorcycle evehicle custom1 custom2" speed="83.33" length="5.85" shape="47859.65,49781.47 47856.06,49786.09"/>
    </edge>
    <edge id=":-32_1" function="internal">
        <lane id=":-32_1_0" index="0" allow="private emergency authority army vip passenger hov taxi bus coach delivery truck trailer motorcycle evehicle custom1 custom2" speed="83.33" length="6.23" shape="47857.61,49778.87 47853.34,49783.57"/>
        <lane id=":-32_1_1" index="1" allow="private emergency authority army vip passenger hov taxi bus coach delivery truck trailer motorcycle evehicle custom1 custom2" speed="83.33" length="6.23" shape="47855.56,49776.28 47851.38,49780.91"/>
        <lane id=":-32_1_2" index="2" allow="private emergency authority army vip passenger hov taxi bus coach delivery truck trailer motorcycle evehicle custom1 custom2" speed="83.33" length="6.23" shape="47853.52,49773.69 47849.43,49778.25"/>
    </edge>
    <edge id=":-38_0" function="internal">
        <lane id=":-38_0_0" index="0" allow="private emergency authority army vip passenger hov taxi bus coach delivery truck trailer motorcycle evehicle custom1 custom2" speed="33.33" length="9.80" shape="36922.40,51553.34 36913.32,51557.03"/>
    </edge>
    <edge id=":-38_1" function="internal">
        <lane id=":-38_1_0" index="0" allow="private emergency authority army vip passenger hov taxi bus coach delivery truck trailer motorcycle evehicle custom1 custom2" speed="33.33" length="10.25" shape="36921.80,51550.09 36918.91,51550.94 36917.04,51551.94 36915.16,51552.89 36912.23,51553.54"/>
        <lane id=":-38_1_1" index="1" allow="private emergency authority army vip passenger hov taxi bus coach delivery truck trailer motorcycle evehicle custom1 custom2" speed="33.33" length="10.25" shape="36921.20,51546.84 36918.31,51547.69 36916.43,51548.70 36914.55,51549.65 36911.62,51550.30"/>
        <lane id=":-38_1_2" index="2" allow="private emergency authority army vip passenger hov taxi bus coach delivery truck trailer motorcycle evehicle custom1 custom2" speed="33.33" length="10.25" shape="36920.61,51543.60 36917.71,51544.45 36915.83,51545.46 36913.94,51546.40 36911.01,51547.05"/>
    </edge>
    <edge id=":-46_0" function="internal">
        <lane id=":-46_0_0" index="0" allow="private emergency authority army vip passenger hov taxi bus coach delivery truck trailer motorcycle evehicle custom1 custom2" speed="52.78" length="5.71" shape="13583.33,51931.32 13581.70,51925.85"/>
    </edge>
    <edge id=":-46_1" function="internal">
        <lane id=":-46_1_0" index="0" allow="private emergency authority army vip passenger hov taxi bus coach delivery truck trailer motorcycle evehicle custom1 custom2" speed="83.33" length="6.57" shape="13586.62,51931.59 13585.52,51925.10"/>
        <lane id=":-46_1_1" index="1" allow="private emergency authority army vip passenger hov taxi bus coach delivery truck trailer motorcycle evehicle custom1 custom2" speed="83.33" length="6.57" shape="13589.91,51931.85 13588.81,51925.37"/>
        <lane id=":-46_1_2" index="2" allow="private emergency authority army vip passenger hov taxi bus coach delivery truck trailer motorcycle evehicle custom1 custom2" speed="83.33" length="6.57" shape="13593.20,51932.11 13592.10,51925.65"/>
    </edge>
    <edge id=":-52_0" function="internal">
        <lane id=":-52_0_0" index="0" allow="private emergency authority army vip passenger hov taxi bus coach delivery truck trailer motorcycle evehicle custom1 custom2" speed="27.78" length="7.11" shape="5876.28,20209.09 5871.02,20213.88"/>
    </edge>
    <edge id=":-52_1" function="internal">
        <lane id=":-52_1_0" index="0" allow="private emergency authority army vip passenger hov taxi bus coach delivery truck trailer motorcycle evehicle custom1 custom2" speed="33.33" length="7.61" shape="5874.75,20206.17 5868.80,20210.95"/>
        <lane id=":-52_1_1" index="1" allow="private emergency authority army vip passenger hov taxi bus coach delivery truck trailer motorcycle evehicle custom1 custom2" speed="33.33" length="7.61" shape="5873.22,20203.24 5867.30,20208.01"/>
        <lane id=":-52_1_2" index="2" allow="private emergency authority army vip passenger hov taxi bus coach delivery truck trailer motorcycle evehicle custom1 custom2" speed="33.33" length="7.61" shape="5871.70,20200.32 5865.80,20205.08"/>
    </edge>
    <edge id=":1020348392_0" function="internal">
        <lane id=":1020348392_0_0" index="0" allow="private emergency authority army vip passenger hov taxi bus coach delivery truck trailer motorcycle evehicle custom1 custom2" speed="52.78" length="8.72" shape="63715.42,35723.48 63715.12,35732.19"/>
    </edge>
    <edge id=":1020348392_1" function="internal">
        <lane id=":1020348392_1_0" index="0" allow="private emergency authority army vip passenger hov taxi bus coach delivery truck trailer motorcycle evehicle custom1 custom2" speed="83.33" length="9.08" shape="63711.87,35723.64 63711.87,35732.73"/>
        <lane id=":1020348392_1_1" index="1" allow="private emergency authority army vip passenger hov taxi bus coach delivery truck trailer motorcycle evehicle custom1 custom2" speed="83.33" length="9.08" shape="63708.62,35724.20 63708.61,35733.28"/>
        <lane id=":1020348392_1_2" index="2" allow="private emergency authority army vip passenger hov taxi bus coach delivery truck trailer motorcycle evehicle custom1 custom2" speed="83.33" length="9.08" shape="63705.36,35724.76 63705.36,35733.82"/>
    </edge>
    <edge id=":1029792101_0" function="internal">
        <lane id=":1029792101_0_0" index="0" allow="private emergency authority army vip passenger hov taxi bus coach delivery truck trailer motorcycle evehicle custom1 custom2" speed="27.78" length="0.10" shape="60431.23,45581.48 60431.21,45581.50"/>
        <lane id=":1029792101_0_1" index="1" allow="private emergency authority army vip passenger hov taxi bus coach delivery truck trailer motorcycle evehicle custom1 custom2" speed="27.78" length="0.10" shape="60429.12,45578.95 60429.12,45578.95"/>
        <lane id=":1029792101_0_2" index="2" allow="private emergency authority army vip passenger hov taxi bus coach delivery truck trailer motorcycle evehicle custom1 custom2" speed="27.78" length="0.10" shape="60427.09,45576.34 60427.08,45576.35"/>
    </edge>
    <edge id=":1029792108_0" function="internal">
        <lane id=":1029792108_0_0" index="0" allow="private emergency authority army vip passenger hov taxi bus coach delivery truck trailer motorcycle evehicle custom1 custom2" speed="27.78" length="0.10" shape="60424.48,45587.00 60424.47,45587.02"/>
        <lane id=":1029792108_0_1" index="1" allow="private emergency authority army vip passenger hov taxi bus coach delivery truck trailer motorcycle evehicle custom1 custom2" speed="27.78" length="0.10" shape="60422.39,45584.45 60422.39,45584.45"/>
        <lane id=":1029792108_0_2" index="2" allow="private emergency authority army vip passenger hov taxi bus coach delivery truck trailer motorcycle evehicle custom1 custom2" speed="27.78" length="0.10" shape="60420.30,45581.90 60420.32,45581.88"/>
    </edge>
    <edge id=":1029792114_0" function="internal">
        <lane id=":1029792114_0_0" index="0" allow="private emergency authority army vip passenger hov taxi bus coach delivery truck trailer motorcycle evehicle custom1 custom2" speed="27.78" length="0.11" shape="60417.39,45567.30 60417.40,45567.29"/>
        <lane id=":1029792114_0_1" index="1" allow="private emergency authority army vip passenger hov taxi bus coach delivery truck trailer motorcycle evehicle custom1 custom2" speed="27.78" length="0.11" shape="60419.44,45569.89 60419.44,45569.89"/>
        <lane id=":1029792114_0_2" index="2" allow="private emergency authority army vip passenger hov taxi bus coach delivery truck trailer motorcycle evehicle custom1 custom2" speed="27.78" length="0.11" shape="60421.46,45572.50 60421.57,45572.41"/>
    </edge>
    <edge id=":1029792116_0" function="internal">
        <lane id=":1029792116_0_0" index="0" allow="private emergency authority army vip passenger hov taxi bus coach delivery truck trailer motorcycle evehicle custom1 custom2" speed="27.78" length="0.10" shape="60410.87,45572.70 60410.84,45572.73"/>
        <lane id=":1029792116_0_1" index="1" allow="private emergency authority army vip passenger hov taxi bus coach delivery truck trailer motorcycle evehicle custom1 custom2" speed="27.78" length="0.10" shape="60412.95,45575.27 60412.94,45575.27"/>
        <lane id=":1029792116_0_2" index="2" allow="private emergency authority army vip passenger hov taxi bus coach delivery truck trailer motorcycle evehicle custom1 custom2" speed="27.78" length="0.10" shape="60415.02,45577.84 60415.05,45577.81"/>
    </edge>
    <edge id=":1029847409_0" function="internal">
        <lane id=":1029847409_0_0" index="0" allow="private emergency authority army vip passenger hov taxi bus coach delivery truck trailer motorcycle evehicle custom1 custom2" speed="27.78" length="2.13" shape="59513.72,46259.22 59513.58,46261.44"/>
        <lane id=":1029847409_0_1" index="1" allow="private emergency authority army vip passenger hov taxi bus coach delivery truck trailer motorcycle evehicle custom1 custom2" speed="27.78" length="2.13" shape="59513.72,46259.22 59511.77,46258.67"/>
    </edge>
    <edge id=":1063816260_0" function="internal">
        <lane id=":1063816260_0_0" index="0" allow="private emergency authority army vip passenger hov taxi bus coach delivery truck trailer motorcycle evehicle custom1 custom2" speed="83.33" length="4.50" shape="47741.69,49868.07 47737.67,49870.09"/>
    </edge>
    <edge id=":1063816260_1" function="internal">
        <lane id=":1063816260_1_0" index="0" allow="private emergency authority army vip passenger hov taxi bus coach delivery truck trailer motorcycle evehicle custom1 custom2" speed="83.33" length="8.02" shape="47742.96,49862.95 47735.97,49867.26"/>
        <lane id=":1063816260_1_1" index="1" allow="private emergency authority army vip passenger hov taxi bus coach delivery truck trailer motorcycle evehicle custom1 custom2" speed="83.33" length="8.02" shape="47741.10,49860.22 47734.27,49864.43"/>
        <lane id=":1063816260_1_2" index="2" allow="private emergency authority army vip passenger hov taxi bus coach delivery truck trailer motorcycle evehicle custom1 custom2" speed="83.33" length="8.02" shape="47739.25,49857.49 47732.57,49861.60"/>
    </edge>
    <edge id=":1064092404_0" function="internal">
        <lane id=":1064092404_0_0" index="0" allow="private emergency authority army vip passenger hov taxi bus coach delivery truck trailer motorcycle evehicle custom1 custom2" speed="33.33" length="3.40" shape="47968.75,49657.90 47972.04,49657.18"/>
        <lane id=":1064092404_0_1" index="1" allow="private emergency authority army vip passenger hov taxi bus coach delivery truck trailer motorcycle evehicle custom1 custom2" speed="33.33" length="3.40" shape="47970.93,49660.38 47974.25,49659.63"/>
        <lane id=":1064092404_0_2" index="2" allow="private emergency authority army vip passenger hov taxi bus coach delivery truck trailer motorcycle evehicle custom1 custom2" speed="33.33" length="3.40" shape="47973.10,49662.86 47976.46,49662.08"/>
    </edge>
    <edge id=":108339330_0" function="internal">
        <lane id=":108339330_0_0" index="0" allow="private emergency authority army vip passenger hov taxi bus coach delivery truck trailer motorcycle evehicle custom1 custom2" speed="27.78" length="0.10" shape="58504.78,46718.55 58504.76,46718.56"/>
        <lane id=":108339330_0_1" index="1" allow="private emergency authority army vip passenger hov taxi bus coach delivery truck trailer motorcycle evehicle custom1 custom2" speed="27.78" length="0.10" shape="58503.79,46715.40 58503.82,46715.40"/>
    </edge>
    <edge id=":108339445_0" function="internal">
        <lane id=":108339445_0_0" index="0" allow="private emergency authority army vip passenger hov taxi bus coach delivery truck trailer motorcycle evehicle custom1 custom2" speed="27.78" length="0.10" shape="58506.90,46704.45 58506.90,46704.45"/>
        <lane id=":108339445_0_1" index="1" allow="private emergency authority army vip passenger hov taxi bus coach delivery truck trailer motorcycle evehicle custom1 custom2" speed="27.78" length="0.10" shape="58507.87,46707.60 58507.87,46707.60"/>
    </edge>
    <edge id=":1096193464_0" function="internal">
        <lane id=":1096193464_0_0" index="0" allow="private emergency authority army vip passenger hov taxi bus coach delivery truck trailer motorcycle evehicle custom1 custom2" speed="33.33" length="0.45" shape="12467.39,18133.49 12468.01,18133.07"/>
        <lane id=":1096193464_0_1" index="1" allow="private emergency authority army vip passenger hov taxi bus coach delivery truck trailer motorcycle evehicle custom1 custom2" speed="33.33" length="0.45" shape="12469.33,18136.16 12469.70,18135.91"/>
        <lane id=":1096193464_0_2" index="2" allow="private emergency authority army vip passenger hov taxi bus coach delivery truck trailer motorcycle evehicle custom1 custom2" speed="33.33" length="0.45" shape="12471.27,18138.82 12471.39,18138.74"/>
    </edge>
    <edge id=":1097407085_0" function="internal">
        <lane id=":1097407085_0_0" index="0" allow="private emergency authority army vip passenger hov taxi bus coach delivery truck trailer motorcycle evehicle custom1 custom2" speed="27.78" length="0.10" shape="53793.14,47212.75 53793.13,47212.75"/>
        <lane id=":1097407085_0_1" index="1" allow="private emergency authority army vip passenger hov taxi bus coach delivery truck trailer motorcycle evehicle custom1 custom2" speed="27.78" length="0.10" shape="53793.07,47216.05 53793.07,47216.05"/>
        <lane id=":1097407085_0_2" index="2" allow="private emergency authority army vip passenger hov taxi bus coach delivery truck trailer motorcycle evehicle custom1 custom2" speed="27.78" length="0.10" shape="53793.00,47219.35 53793.00,47219.35"/>
    </edge>
    <edge id=":1106545543_0" function="internal">
        <lane id=":1106545543_0_0" index="0" allow="private emergency authority army vip passenger hov taxi bus coach delivery truck trailer motorcycle evehicle custom1 custom2" speed="27.78" length="0.10" shape="56106.10,47258.22 56106.04,47258.23"/>
        <lane id=":1106545543_0_1" index="1" allow="private emergency authority army vip passenger hov taxi bus coach delivery truck trailer motorcycle evehicle custom1 custom2" speed="27.78" length="0.10" shape="56106.71,47261.46 56106.71,47261.46"/>
        <lane id=":1106545543_0_2" index="2" allow="private emergency authority army vip passenger hov taxi bus coach delivery truck trailer motorcycle evehicle custom1 custom2" speed="27.78" length="0.10" shape="56107.37,47264.69 56107.37,47264.69"/>
    </edge>
    <edge id=":1124989711_0" function="internal">
        <lane id=":1124989711_0_0" index="0" allow="private emergency authority army vip passenger hov taxi bus coach delivery truck trailer motorcycle evehicle custom1 custom2" speed="33.33" length="3.32" shape="1271.94,25296.99 1273.49,25299.77"/>
        <lane id=":1124989711_0_1" index="1" allow="private emergency authority army vip passenger hov taxi bus coach delivery truck trailer motorcycle evehicle custom1 custom2" speed="33.33" length="3.32" shape="1271.94,25296.99 1270.19,25299.73"/>
        <lane id=":1124989711_0_2" index="2" allow="private emergency authority army vip passenger hov taxi bus coach delivery truck trailer motorcycle evehicle custom1 custom2" speed="33.33" length="3.32" shape="1268.64,25296.80 1266.89,25299.69"/>
        <lane id=":1124989711_0_3" index="3" allow="private emergency authority army vip passenger hov taxi bus coach delivery truck trailer motorcycle evehicle custom1 custom2" speed="33.33" length="3.32" shape="1265.35,25296.62 1263.59,25299.65"/>
    </edge>
    <edge id=":1126084768_0" function="internal">
        <lane id=":1126084768_0_0" index="0" allow="private emergency authority army vip passenger hov taxi bus coach delivery truck trailer motorcycle evehicle custom1 custom2" speed="27.78" length="0.10" shape="61624.12,44887.93 61624.17,44887.91"/>
        <lane id=":1126084768_0_1" index="1" allow="private emergency authority army vip passenger hov taxi bus coach delivery truck trailer motorcycle evehicle custom1 custom2" speed="27.78" length="0.10" shape="61622.98,44884.84 61622.98,44884.84"/>
        <lane id=":1126084768_0_2" index="2" allow="private emergency authority army vip passenger hov taxi bus coach delivery truck trailer motorcycle evehicle custom1 custom2" speed="27.78" length="0.10" shape="61621.83,44881.74 61621.83,44881.75"/>
    </edge>
    <edge id=":1151133248_0" function="internal">
        <lane id=":1151133248_0_0" index="0" allow="private emergency authority army vip passenger hov taxi bus coach delivery truck trailer motorcycle evehicle custom1 custom2" speed="52.78" length="5.18" shape="63659.57,35581.99 63661.06,35577.02"/>
    </edge>
    <edge id=":1151133248_1" function="internal">
        <lane id=":1151133248_1_0" index="0" allow="private emergency authority army vip passenger hov taxi bus coach delivery truck trailer motorcycle evehicle custom1 custom2" speed="83.33" length="5.57" shape="63663.04,35581.58 63664.26,35576.23"/>
        <lane id=":1151133248_1_1" index="1" allow="private emergency authority army vip passenger hov taxi bus coach delivery truck trailer motorcycle evehicle custom1 custom2" speed="83.33" length="5.57" shape="63666.26,35580.87 63667.46,35575.43"/>
        <lane id=":1151133248_1_2" index="2" allow="private emergency authority army vip passenger hov taxi bus coach delivery truck trailer motorcycle evehicle custom1 custom2" speed="83.33" length="5.57" shape="63669.48,35580.16 63670.66,35574.64"/>
    </edge>
    <edge id=":1151195607_0" function="internal">
        <lane id=":1151195607_0_0" index="0" allow="private emergency authority army vip passenger hov taxi bus coach delivery truck trailer motorcycle evehicle custom1 custom2" speed="52.78" length="8.98" shape="63693.62,35760.93 63690.31,35752.58"/>
    </edge>
    <edge id=":1151195607_1" function="internal">
        <lane id=":1151195607_1_0" index="0" allow="private emergency authority army vip passenger hov taxi bus coach delivery truck trailer motorcycle evehicle custom1 custom2" speed="83.33" length="9.39" shape="63696.88,35760.38 63693.71,35751.54"/>
        <lane id=":1151195607_1_1" index="1" allow="private emergency authority army vip passenger hov taxi bus coach delivery truck trailer motorcycle evehicle custom1 custom2" speed="83.33" length="9.39" shape="63700.13,35759.83 63696.97,35750.99"/>
        <lane id=":1151195607_1_2" index="2" allow="private emergency authority army vip passenger hov taxi bus coach delivery truck trailer motorcycle evehicle custom1 custom2" speed="83.33" length="9.39" shape="63703.38,35759.28 63700.22,35750.44"/>
    </edge>
    <edge id=":1157427095_0" function="internal">
        <lane id=":1157427095_0_0" index="0" allow="private emergency authority army vip passenger hov taxi bus coach delivery truck trailer motorcycle evehicle custom1 custom2" speed="83.33" length="0.10" shape="63923.42,36967.29 63923.41,36967.22"/>
        <lane id=":1157427095_0_1" index="1" allow="private emergency authority army vip passenger hov taxi bus coach delivery truck trailer motorcycle evehicle custom1 custom2" speed="83.33" length="0.10" shape="63920.17,36967.84 63920.17,36967.84"/>
        <lane id=":1157427095_0_2" index="2" allow="private emergency authority army vip passenger hov taxi bus coach delivery truck trailer motorcycle evehicle custom1 custom2" speed="83.33" length="0.10" shape="63916.92,36968.44 63916.92,36968.44"/>
    </edge>
    <edge id=":1157427226_0" function="internal">
        <lane id=":1157427226_0_0" index="0" allow="private emergency authority army vip passenger hov taxi bus coach delivery truck trailer motorcycle evehicle custom1 custom2" speed="83.33" length="0.10" shape="63798.74,36233.29 63798.74,36233.29"/>
        <lane id=":1157427226_0_1" index="1" allow="private emergency authority army vip passenger hov taxi bus coach delivery truck trailer motorcycle evehicle custom1 custom2" speed="83.33" length="0.10" shape="63795.49,36233.84 63795.49,36233.84"/>
        <lane id=":1157427226_0_2" index="2" allow="private emergency authority army vip passenger hov taxi bus coach delivery truck trailer motorcycle evehicle custom1 custom2" speed="83.33" length="0.10" shape="63792.24,36234.40 63792.24,36234.39"/>
    </edge>
    <edge id=":1157433770_0" function="internal">
        <lane id=":1157433770_0_0" index="0" allow="private emergency authority army vip passenger hov taxi bus coach delivery truck trailer motorcycle evehicle custom1 custom2" speed="83.33" length="0.10" shape="63891.07,36775.02 63891.07,36775.02"/>
        <lane id=":1157433770_0_1" index="1" allow="private emergency authority army vip passenger hov taxi bus coach delivery truck trailer motorcycle evehicle custom1 custom2" speed="83.33" length="0.10" shape="63887.82,36775.57 63887.82,36775.57"/>
        <lane id=":1157433770_0_2" index="2" allow="private emergency authority army vip passenger hov taxi bus coach delivery truck trailer motorcycle evehicle custom1 custom2" speed="83.33" length="0.10" shape="63884.57,36776.13 63884.56,36776.11"/>
    </edge>
    <edge id=":1161306444_0" function="internal">
        <lane id=":1161306444_0_0" index="0" allow="private emergency authority army vip passenger hov taxi bus coach delivery truck trailer motorcycle evehicle custom1 custom2" speed="83.33" length="0.10" shape="9922.43,41648.45 9922.42,41648.41"/>
        <lane id=":1161306444_0_1" index="1" allow="private emergency authority army vip passenger hov taxi bus coach delivery truck trailer motorcycle evehicle custom1 custom2" speed="83.33" length="0.10" shape="9925.49,41647.21 9925.49,41647.22"/>
        <lane id=":1161306444_0_2" index="2" allow="private emergency authority army vip passenger hov taxi bus coach delivery truck trailer motorcycle evehicle custom1 custom2" speed="83.33" length="0.10" shape="9928.55,41645.97 9928.57,41646.02"/>
    </edge>
    <edge id=":1161306457_0" function="internal">
        <lane id=":1161306457_0_0" index="0" allow="private emergency authority army vip passenger hov taxi bus coach delivery truck trailer motorcycle evehicle custom1 custom2" speed="83.33" length="0.10" shape="9943.86,41640.01 9943.85,41639.99"/>
        <lane id=":1161306457_0_1" index="1" allow="private emergency authority army vip passenger hov taxi bus coach delivery truck trailer motorcycle evehicle custom1 custom2" speed="83.33" length="0.10" shape="9940.79,41641.22 9940.79,41641.22"/>